[TITLE]
;;Project Title/Notes
Example Model Generated by R. Kertesz at EmNet 7/2015
Designed to utilize many of the advanced control functions available in the 5.1.007 release of the ecSWMM software
For demonstration purposes only.
***

[OPTIONS]
;;Option             Value
FLOW_UNITS           CFS
INFILTRATION         HORTON
FLOW_ROUTING         DYNWAVE
LINK_OFFSETS         DEPTH
MIN_SLOPE            0
ALLOW_PONDING        YES
SKIP_STEADY_STATE    YES

START_DATE           06/03/1970
START_TIME           06:00:00
REPORT_START_DATE    06/03/1970
REPORT_START_TIME    06:00:00
END_DATE             06/09/1970
END_TIME             07:00:00
SWEEP_START          01/01
SWEEP_END            12/31
DRY_DAYS             0
REPORT_STEP          00:01:00
WET_STEP             00:01:00
DRY_STEP             00:30:00
ROUTING_STEP         0:00:30 

INERTIAL_DAMPING     PARTIAL
NORMAL_FLOW_LIMITED  BOTH
FORCE_MAIN_EQUATION  H-W
VARIABLE_STEP        0.55
LENGTHENING_STEP     0
MIN_SURFAREA         12.566
MAX_TRIALS           16
HEAD_TOLERANCE       0.001
SYS_FLOW_TOL         5
LAT_FLOW_TOL         5

[EVAPORATION]
;;Evap Data      Parameters
;;-------------- ----------------
MONTHLY          0.025  0.035  0.05   0.105  0.145  0.15   0.165  0.155  0.115  0.085  0.045  0.05  
DRY_ONLY         NO

[RAINGAGES]
;;Gage           Format    Interval SCF      Source    
;;-------------- --------- ------ ------ ----------
RG001            VOLUME    1:00     1        TIMESERIES Example         

[SUBCATCHMENTS]
;;Subcatchment   Rain Gage        Outlet           Area     %Imperv  Width    %Slope   CurbLen  Snow Pack       
;;-------------- ---------------- ---------------- -------- -------- -------- -------- -------- ----------------
MySubcatch       RG001            J1               3.893    27.6     177.69   1.37     0                        

[SUBAREAS]
;;Subcatchment   N-Imperv   N-Perv     S-Imperv   S-Perv     PctZero    RouteTo    PctRouted 
;;-------------- ---------- ---------- ---------- ---------- ---------- ---------- ----------
MySubcatch       0.015      0.25       0.1        0.2        25         OUTLET    

[INFILTRATION]
;;Subcatchment   MaxRate    MinRate    Decay      DryTime    MaxInfil  
;;-------------- ---------- ---------- ---------- ---------- ----------
MySubcatch       1          0.25       2.016      7          0         

[JUNCTIONS]
;;Junction       Invert     MaxDepth   InitDepth  SurDepth   Aponded   
;;-------------- ---------- ---------- ---------- ---------- ----------
J1               537.71     11         0          0          0         
J2               537.3      20.94      0          9999       0         
J3               547        12.5       0          9999       0         
J4               556.33     5          0          9999       0         
J5               540.44     15.56      0          0          0         
J6               542.4      13         0          0          0         
1                547        10         0          9999       0         

[OUTFALLS]
;;Outfall        Invert     Type       Stage Data       Gated   
;;-------------- ---------- ---------- ---------------- --------
wwtp             535.61     NORMAL                      NO
Out1             546.81     NORMAL                      NO
Out2             546.47     FREE                        NO

[STORAGE]
;;Storage Node   Invert   MaxDepth   InitDepth  Shape      Curve Name/Params                     Fevap    Seepage
;;-------------- -------- ---------- ----------- ---------- ---------------------------- -------- -------- --------------------------------
StorageA1        529.47   18.86      0          FUNCTIONAL 0         0         12.56    0        0       
StorageA2        537.16   24         0          FUNCTIONAL 0         0         166.25   0        0       
StorageA3        537.6    20.48      0          FUNCTIONAL 0         0         121      0        0       
StorageA4        524      37         0          FUNCTIONAL 0         0         100      0        0       
MyTank1          560      32         0          FUNCTIONAL 0         0         5730     0        0       
MyTank2          560      32         0          FUNCTIONAL 0         0         5730     0        0       

[CONDUITS]
;;Conduit        From Node        To Node          Length     Roughness  InOffset   OutOffset  InitFlow   MaxFlow   
;;-------------- ---------------- ---------------- ---------- ---------- ---------- ---------- ---------- ----------
NodA1-NodA2      J2               StorageA1        1000       0.015      0          0          0          0         
NodA3-StorageA1  StorageA1        J1               14.64      0.015      0          0          0          0         
NodA3-NodA4      J1               wwtp             220        0.015      3          0          0          0         
StorageA2-J2     StorageA3        J2               80         0.001      0          0          0          0         
J3-Out2          J3               Out1             25.12      0.015      0          0          0          0         
J4-J3            J4               Out2             386.38     0.015      0          0.91       0          0         
NodA5-NodA6      J5               StorageA2        287.6      0.015      0          0          0          0         
J6-NodA6         J6               StorageA2        407.17     0.015      0          0          0          0         
Tank1-Tank2      MyTank1          MyTank2          20         0.015      27.49      27.48      0          0         
2                1                J2               400        0.01       0          6.84       0          0         

[PUMPS]
;;Pump           From Node        To Node          Pump Curve       Status   Sartup Shutoff 
;;-------------- ---------------- ---------------- ---------------- ------ -------- --------
PUMP1            MyTank1          J3               ChemTreatment    OFF      0        2.5     
PUMP15@StorageA4-MyTank1 StorageA4        MyTank1          1cfsflowstandard OFF      0        0       
PUMP18@MyTank2-J3 MyTank2          J3               ChemTreatment    OFF      0        2.5     
PumpRepresentingRecycleValve J3               StorageA4        Recycle          OFF      0        0       

[ORIFICES]
;;Orifice        From Node        To Node          Type         CrestHt    Qcoeff     Gated    CloseTime 
;;-------------- ---------------- ---------------- ------------ ---------- ---------- -------- ----------
Orifice1@StorageA2-StorageA3 StorageA2        StorageA3        SIDE         0.44       0.65       NO       0         
Orifice2@StorageA2-StorageA3 StorageA2        StorageA3        SIDE         7.4        0.65       YES      0         
Orifice3         MyTank1          1                SIDE         0          0.65       NO       0         
Orifice4         MyTank2          1                SIDE         0          0.65       NO       0         

[WEIRS]
;;Weir           From Node        To Node          Type         CrestHt    Qcoeff     Gated    EndCon   EndCoeff   Surcharge 
;;-------------- ---------------- ---------------- ------------ ---------- ---------- -------- -------- ---------- ----------
1                StorageA2        StorageA4        SIDEFLOW     4.84       3.33       YES      0        0          YES       
NEWoverflowTank2 MyTank2          J4               TRANSVERSE   28         3.33       NO       0        0          YES       

[XSECTIONS]
;;Link           Shape        Geom1            Geom2      Geom3      Geom4      Barrels   
;;-------------- ------------ ---------------- ---------- ---------- ---------- ----------
NodA1-NodA2      FILLED_CIRCULAR 3.5              0.13       0          0          1                    
NodA3-StorageA1  CIRCULAR     0.67             0          0          0          1                    
NodA3-NodA4      CIRCULAR     2                0          0          0          1                    
StorageA2-J2     FILLED_CIRCULAR 3.5              0.13       0          0          1                    
J3-Out2          CIRCULAR     3                0          0          0          1                    
J4-J3            CIRCULAR     2.5              0          0          0          1                    
NodA5-NodA6      FILLED_CIRCULAR 3.25             0.13       0          0          1                    
J6-NodA6         CIRCULAR     3.5              0          0          0          1                    
Tank1-Tank2      RECT_CLOSED  1.5              4.7        0          0          1                    
2                CIRCULAR     2.5              0          0          0          1                    
Orifice1@StorageA2-StorageA3 RECT_CLOSED  3.5              3.5        0          0
Orifice2@StorageA2-StorageA3 RECT_CLOSED  3                4          0          0
Orifice3         CIRCULAR     1.5              0          0          0
Orifice4         CIRCULAR     1.5              0          0          0
1                RECT_OPEN    18.5             23         0          0         
NEWoverflowTank2 RECT_OPEN    2                8          0          0         

[LOSSES]
;;Link           Kinlet     Koutlet    Kavg       Flap Gate  SeepRate  
;;-------------- ---------- ---------- ---------- ---------- ----------
Tank1-Tank2      0          0          0          YES        0         
2                0          0          0          YES        0         

[CONTROLS]
;;Control Rules
;;Control Rules
;;Control Rules
;;Control Rules
;;Control Rules
;;Control Rules
;;Control Rules
;These simulate the operation of a settling and chemical treatment facility
; note that, for the same priority (i.e. priority 0), rules higher up on the list
; take priority (where actions override) rules further down on the list

;----------------------------------------------------------------
;This is used to maintain a minimum depth of water in the wet well
; Note that PID2 is used (instead of the "normal" PID) because it allows you
; to set the proportional term to 0 without it being multiplied across the other
; (I and D) parameters like the regular SWMM PID does (see SWMM help file for the
; PID equation
RULE IntercGate_WetWell_Level
IF NODE StorageA4 DEPTH < 10
THEN ORIFICE Orifice1@StorageA2-StorageA3 SETTING = PID2 0.0 -0.01 0.0 ; negative value because
; gate change creates inverse effect at the wet well
ELSE ORIFICE Orifice1@StorageA2-StorageA3 SETTING = 0.8 ; same as during startup

;----------------------------------------------------------------
; These rules are designed to drain two settling tanks during dry weather.

; We do not want to add flow to the sewer line if the depth is too high,
; just to cause it to come back into the facility
RULE NoDischargeIfSewerDepthTooHigh ;
IF NODE StorageA2 DEPTH > 4.84
THEN ORIFICE Orifice3 setting = 0
AND ORIFICE Orifice4 setting = 0

RULE DrainThrottleTank2
IF ORIFICE Orifice4 setting < 1; if it isn't open
AND NODE MyTank2 DEPTH > 0.1 ; if there is water to drain
AND NODE StorageA2 DEPTH < 4  ; the sewer won't fill up too much (note 0.84 ft difference from above rule)
AND NODE MyTank1 DEPTH < 0.1 ; no water to drain from the small tank (we want to drain tank1 first)
THEN ORIFICE Orifice4 setting = CURVE curvetodraintank
AND ORIFICE Orifice3 setting = 0

RULE DrainThrottleTank1
IF ORIFICE Orifice3 setting < 1
AND NODE MyTank1 DEPTH > 0.1
AND NODE StorageA2 DEPTH < 4
THEN ORIFICE Orifice3 setting = CURVE curvetodraintank
AND ORIFICE Orifice4 setting = 0


;----------------------------------------------------------------
; Here, we are operating a pump to bring sewage into the facility.

;; If there is overflow at the facility, then only pull in as much water as is being processed
RULE InfluentPumpRate_MatchedtoRecyclingAndChemTreat
IF NODE MyTank2 DEPTH >= 26
AND NODE StorageA4 DEPTH > 3 ; Reduce cavitation
AND LINK PumpRepresentingRecycleValve FLOW [Enter] --- ;
AND LINK J3-Out2 FLOW [Enter] --- ;
AND STACK OP [+] --- ;
AND STACK OP [Enter] 1 ; (cfs) adding some extra flow to fill up all capacity of tanks for demonstration purposes
AND STACK OP [+] --- ;
THEN PUMP PUMP15@StorageA4-MyTank1 setting = STACK RESULT

; Do not generate inflow to the facility if it will cause cavitation, or if dewatering is occurring
RULE InfluentPumpRate_Minimum
IF LINK 2 FLOW > 0.1 ; dewatering from tanks
OR NODE StorageA4 DEPTH < 3 ; Reduce cavitation
OR LINK NodA5-NodA6 FLOW [Enter] --- ; upstream sewer flow added to the stack
AND LINK NodA5-NodA6 FLOW [BACK] 300 ; look at flow 5 minutes ago, add to the stack (now two cards in the stack)
AND STACK OP [+] --- ; add the two cards and pop the stack (one card in stack)
AND STACK OP [Enter] 2 ; we will divide by two to get the...
AND STACK OP [/] --- ; ...average flow for the last 5 minutes. We added a card, popped the stack,
; added another card, and popped the stack when dividing. Now we have two cards
; We will do the same for the other upstream flow
AND LINK J6-NodA6 FLOW [Enter] --- ; current flow
AND LINK J6-NodA6 FLOW [BACK] 300 ; look at flow 5 minutes ago
AND STACK OP [+] --- ;
AND STACK OP [Enter] 2 ;
AND STACK OP [/] --- ; average
AND STACK OP [+] --- ; Here we are adding the two averaged upstream flows to get the total flow
AND STACK OP [Enter] 26.5 ; maximum slightly conservative flow we want
AND STACK OP [X>Y] --- ; If we are not flowing at at least 26.5 cfs, then we don't need to pump into the facility
THEN PUMP PUMP15@StorageA4-MyTank1 SETTING = 0;
; The reason for adding the link flows instead of using something like "node xxxx inflow [Enter] ---"
; is because that will only return the lateral inflow, not the total inflow to the node.
; As such, we needed to sum the two upstream inflows to the node before the facility

; We want to shave off a little flow as necessary to maintain 26.5 cfs or lower in the sewer line
; because we know from another study that it should be able to handle this capacity without causing issues.
; Much of this will look the same as above but because we do not keep the stack in memory between two rules,
; we need to rebuild the stack
RULE InfluentPumpRate_LargeEvent
IF NODE StorageA4 DEPTH > 3 ; Reduce cavitation
AND LINK NodA5-NodA6 FLOW [Enter] --- ;
AND LINK NodA5-NodA6 FLOW [BACK] 300 ; look at flow 5 minutes ago
AND STACK OP [+] --- ;
AND STACK OP [Enter] 2 ;
AND STACK OP [/] --- ;
AND LINK J6-NodA6 FLOW [Enter] --- ;
AND LINK J6-NodA6 FLOW [BACK] 300 ; look at flow 5 minutes ago
AND STACK OP [+] --- ;
AND STACK OP [Enter] 2 ;
AND STACK OP [/] --- ;
AND STACK OP [+] --- ;
AND STACK OP [Enter] 26.5 ; maximum slightly conservative flow we want
AND STACK OP [X<Y] --- ;
AND STACK OP [-] --- ;  Perform (Y) minus (X). Pop stack twice, push result onto top-of-stack
AND STACK OP [Enter] 61.8 ; We want to check to see if we will try to pump more than 61.8 cfs, which
; is the maximum pump rate that the system can handle
AND STACK OP [X>Y] --- ; this does not add a card to the stack
AND STACK OP [POP] --- ; We pop the stack because we only wanted to use the 61.8 cfs for comparison.
; if the calculated flow rate is less than 61.8, then we can throw away that card and get to the calculated flow rate
THEN PUMP PUMP15@StorageA4-MyTank1 SETTING = STACK RESULT; the difference between the flow and 26.5
; otherwise, we tell the simulation to pump only as much as allowed
ELSE PUMP PUMP15@StorageA4-MyTank1 SETTING = STACK 61.8;
; note that due to the order of the rules, if this the pump is set to 61.8 cfs but an above rule, like
; RULE InfluentPumpRate_MatchedtoRecyclingAndChemTreat finds that the tanks are nearly full and the
; chemical treatment system is operational. That action will trump this one and the resultant flow rate
; into the facility be lower than 61.8 cfs



;----------------------------------------------------------------
; Water in the tanks is sent to chemical treatment if storage is not available
; When chemical treatment is started, a recycling pump must activate to pump back to the
; headworks for a short period of time.

; when to tell the Recycling pump to turn on and off
; note that this is higher up on the list than the rules for enabling the pumps
; however, since it is checking flows, it is actually looking at results from the previous
; timestep (before these control actions are taking place). Therefore, there will always be at least
; a 1 timestep lag between activation of the chemical treatment pump and the activation of the recycling pump.
RULE RecyclePump
IF PUMP PUMP18@MyTank2-J3 FLOW > 0.1 ; Instead of STATUS = ON, this allows us some tiny flows to not trigger actions
OR PUMP PUMP1 FLOW > 0.1 ; similar to above STATUS = ON alternative
; make sure our pump isn't running for longer than 20 minutes
AND PUMP PUMP18@MyTank2-J3 FLOW [BACK] 1200 ; look at flow 20 minutes ago (in seconds)
AND PUMP PUMP1 FLOW [BACK] 1200 ; look at flow 20 minutes ago
; we want to add the flows of both pumps because we only operate the recycling pump for 20 minutes, no matter
; which tank is being drained to chemical treatment
AND STACK OP [+] --- ; add the two together. Likelyhood that they are both zero is low unless system wasn't running
AND STACK OP [ENTER] 0.1 ; very small value
AND STACK OP [X>Y] --- ; if 0.1 > our pump rate to chemical treatment 20 minutes ago.. i.e. if it was off
THEN PUMP PumpRepresentingRecycleValve SETTING = 1 ;
ELSE PUMP PumpRepresentingRecycleValve SETTING = 0 ;
; after 20 minutes of operation, the recycling pump will turn off

;----------------------------------------------------------------
; Chemical treatment pump operations
; note that we have two pumps to the chemical chamber, one from each tank.
; We need to coordinate the operation of the pumps

; Turning off the pumps-------------------------------
RULE DISABLE_ChemPUMP2
IF NODE MyTank2 DEPTH < 2.5 ; fairly empty
OR NODE StorageA2 DEPTH < 4.5 ; not enough depth in the sewer to justify the
; cost of chemical treatment
THEN PUMP PUMP18@MyTank2-J3 SETTING = 0

RULE DISABLE_ChemPUMP1
IF NODE MyTank1 DEPTH < 2.5 ; fairly empty
THEN PUMP PUMP1 SETTING = 0

; Turning on the pumps--------------------------------
RULE overflow ; If overflow is going to occur, run at highes pumping rate possible
; try to leave material in the first tank in hopes that it will be sent to the WWTP
; later by dewatering
IF PUMP PUMP18@MyTank2-J3 FLOW < 18 ; we aren't running at the full pump rate yet
AND LINK J4-J3 FLOW > 0.01 ; there is overflow now
AND LINK J4-J3 FLOW [BACK] 120 ; overflow two minutes ago
AND STACK OP [ENTER] 0.01 ; small value
AND STACK OP [X<Y] --- ; if there has been overflow for two minutes as well
THEN PUMP PUMP18@MyTank2-J3 SETTING = 1 ; if it isn't already on then turn on full blast
AND PUMP PUMP1 SETTING = 0 ; don't drain from both tanks at same time

RULE pump2_DSdepthHIGH ;
IF PUMP PUMP18@MyTank2-J3 FLOW < 0.01 ; if the pump isn't running
AND NODE MyTank2 DEPTH > 24 ; ; there's enough water in the tank
AND NODE J1 DEPTH >= 2.5 ; downstream depth is too high! Likely flow getting pushed into facility too
THEN PUMP PUMP18@MyTank2-J3 SETTING = 0.5 ; turn pump on at 50% (plus the 25% below, operating at 75%
; of capacity

; Run ChemTreat from tank1 if downstream depth is too high but we aren't at capacity at the facility
RULE PUMP1_DSdepthHIGH
IF PUMP PUMP1 FLOW < 0.1 ;off
AND NODE J1 DEPTH >= 2.5 ; downstream depth is too high! Likely flow getting pushed into facility too
AND NODE MyTank1 DEPTH > 25 ; there's enough depth
THEN PUMP PUMP1 SETTING = 0.25 ; turn pump on at 25 %
;AND PUMP PUMP18@MyTank2-J3 SETTING = 0


;----------------------------------------------------------------
; Initialization
RULE StartupInitializationSSO700
IF SIMULATION TIME < 0.09 ; (hrs) Here we are setting up initial parameters at the beg of sim //ecSWMM
THEN PUMP PUMP18@MyTank2-J3 SETTING = 0
AND PUMP PUMP1 SETTING = 0
AND ORIFICE Orifice2@StorageA2-StorageA3 SETTING = 1 ; bypass for high flow
and ORIFICE Orifice1@StorageA2-StorageA3 SETTING = 0.8 ; Gate is slightly closed
; note that case doens't matter

[INFLOWS]
;;Node           Inflow           Time Series      Type     Funits   Fscale   Baseline Pattern
;;-------------- ---------------- ---------------- -------- -------- -------- -------- --------
J5               FLOW             J5_INFLOW        FLOW     1.0      1        0.000   
J6               FLOW             NodeJ1i_INFLOW   FLOW     1.0      1.0              

[DWF]
;;Node           Parameter        BaseDWF    Patterns  
;;-------------- ---------------- ---------- ----------
StorageA1        FLOW             0.013      "examplePattern" ""

[CURVES]
;;Curve          Type       X-Value    Y-Value   
;;-------------- ---------- ---------- ----------
Bypass_Weir      Control    3          1         
Bypass_Weir                 3.3        0.93      
Bypass_Weir                 3.6        0.77      
Bypass_Weir                 4          0.55      
Bypass_Weir                 4.2        0.4       
Bypass_Weir                 4.5        0.2       
Bypass_Weir                 4.7        0.1       
Bypass_Weir                 4.8        0.05      
Bypass_Weir                 5          0         
;
curvetodraintank Control    0          .8        
curvetodraintank            10         .5        
curvetodraintank            20         .35       
curvetodraintank            30         .2        
;
1cfsflowstandard Pump2      0          1         
1cfsflowstandard            1000       1         
;
Recycle          Pump2      0          5         
Recycle                     10         5         
;
SludgePump       Pump4      0          0.77      
SludgePump                  50         0.77      
;
ChemTreatment    Pump2      0          22        
ChemTreatment               30         22        

[TIMESERIES]
;;Time Series    Date       Time       Value     
;;-------------- ---------- ---------- ----------
NodeJ1i_INFLOW   06/03/1970 06:05      0.004     
NodeJ1i_INFLOW   06/03/1970 06:10      0.007     
NodeJ1i_INFLOW   06/03/1970 06:15      0.009     
NodeJ1i_INFLOW   06/03/1970 06:20      0.010     
NodeJ1i_INFLOW   06/03/1970 06:25      0.012     
NodeJ1i_INFLOW   06/03/1970 06:30      0.014     
NodeJ1i_INFLOW   06/03/1970 06:35      0.016     
NodeJ1i_INFLOW   06/03/1970 06:40      0.021     
NodeJ1i_INFLOW   06/03/1970 06:45      0.030     
NodeJ1i_INFLOW   06/03/1970 06:50      0.075     
NodeJ1i_INFLOW   06/03/1970 06:55      0.543     
NodeJ1i_INFLOW   06/03/1970 07:00      1.292     
NodeJ1i_INFLOW   06/03/1970 07:05      1.597     
NodeJ1i_INFLOW   06/03/1970 07:10      1.892     
NodeJ1i_INFLOW   06/03/1970 07:15      2.189     
NodeJ1i_INFLOW   06/03/1970 07:20      2.449     
NodeJ1i_INFLOW   06/03/1970 07:25      2.700     
NodeJ1i_INFLOW   06/03/1970 07:30      3.037     
NodeJ1i_INFLOW   06/03/1970 07:35      3.425     
NodeJ1i_INFLOW   06/03/1970 07:40      3.729     
NodeJ1i_INFLOW   06/03/1970 07:45      3.996     
NodeJ1i_INFLOW   06/03/1970 07:50      4.244     
NodeJ1i_INFLOW   06/03/1970 07:55      4.429     
NodeJ1i_INFLOW   06/03/1970 08:00      4.553     
NodeJ1i_INFLOW   06/03/1970 08:05      4.643     
NodeJ1i_INFLOW   06/03/1970 08:10      4.712     
NodeJ1i_INFLOW   06/03/1970 08:15      4.764     
NodeJ1i_INFLOW   06/03/1970 08:20      4.796     
NodeJ1i_INFLOW   06/03/1970 08:25      4.797     
NodeJ1i_INFLOW   06/03/1970 08:30      4.765     
NodeJ1i_INFLOW   06/03/1970 08:35      4.731     
NodeJ1i_INFLOW   06/03/1970 08:40      4.703     
NodeJ1i_INFLOW   06/03/1970 08:45      4.677     
NodeJ1i_INFLOW   06/03/1970 08:50      4.670     
NodeJ1i_INFLOW   06/03/1970 08:55      4.692     
NodeJ1i_INFLOW   06/03/1970 09:00      4.726     
NodeJ1i_INFLOW   06/03/1970 09:05      4.746     
NodeJ1i_INFLOW   06/03/1970 09:10      4.754     
NodeJ1i_INFLOW   06/03/1970 09:15      4.751     
NodeJ1i_INFLOW   06/03/1970 09:20      4.736     
NodeJ1i_INFLOW   06/03/1970 09:25      4.694     
NodeJ1i_INFLOW   06/03/1970 09:30      4.627     
NodeJ1i_INFLOW   06/03/1970 09:35      4.571     
NodeJ1i_INFLOW   06/03/1970 09:40      4.534     
NodeJ1i_INFLOW   06/03/1970 09:45      4.503     
NodeJ1i_INFLOW   06/03/1970 09:50      4.476     
NodeJ1i_INFLOW   06/03/1970 09:55      4.456     
NodeJ1i_INFLOW   06/03/1970 10:00      4.443     
NodeJ1i_INFLOW   06/03/1970 10:05      4.436     
NodeJ1i_INFLOW   06/03/1970 10:10      4.431     
NodeJ1i_INFLOW   06/03/1970 10:15      4.427     
NodeJ1i_INFLOW   06/03/1970 10:20      4.417     
NodeJ1i_INFLOW   06/03/1970 10:25      4.394     
NodeJ1i_INFLOW   06/03/1970 10:30      4.357     
NodeJ1i_INFLOW   06/03/1970 10:35      4.323     
NodeJ1i_INFLOW   06/03/1970 10:40      4.299     
NodeJ1i_INFLOW   06/03/1970 10:45      4.277     
NodeJ1i_INFLOW   06/03/1970 10:50      4.256     
NodeJ1i_INFLOW   06/03/1970 10:55      4.237     
NodeJ1i_INFLOW   06/03/1970 11:00      4.220     
NodeJ1i_INFLOW   06/03/1970 11:05      4.206     
NodeJ1i_INFLOW   06/03/1970 11:10      4.195     
NodeJ1i_INFLOW   06/03/1970 11:15      4.187     
NodeJ1i_INFLOW   06/03/1970 11:20      4.180     
NodeJ1i_INFLOW   06/03/1970 11:25      4.176     
NodeJ1i_INFLOW   06/03/1970 11:30      4.173     
NodeJ1i_INFLOW   06/03/1970 11:35      4.169     
NodeJ1i_INFLOW   06/03/1970 11:40      4.166     
NodeJ1i_INFLOW   06/03/1970 11:45      4.161     
NodeJ1i_INFLOW   06/03/1970 11:50      4.159     
NodeJ1i_INFLOW   06/03/1970 11:55      4.161     
NodeJ1i_INFLOW   06/03/1970 12:00      4.173     
NodeJ1i_INFLOW   06/03/1970 12:05      4.197     
NodeJ1i_INFLOW   06/03/1970 12:10      4.234     
NodeJ1i_INFLOW   06/03/1970 12:15      4.287     
NodeJ1i_INFLOW   06/03/1970 12:20      4.354     
NodeJ1i_INFLOW   06/03/1970 12:25      4.429     
NodeJ1i_INFLOW   06/03/1970 12:30      4.512     
NodeJ1i_INFLOW   06/03/1970 12:35      4.621     
NodeJ1i_INFLOW   06/03/1970 12:40      4.772     
NodeJ1i_INFLOW   06/03/1970 12:45      4.972     
NodeJ1i_INFLOW   06/03/1970 12:50      5.240     
NodeJ1i_INFLOW   06/03/1970 12:55      5.610     
NodeJ1i_INFLOW   06/03/1970 13:00      6.120     
NodeJ1i_INFLOW   06/03/1970 13:05      6.803     
NodeJ1i_INFLOW   06/03/1970 13:10      7.699     
NodeJ1i_INFLOW   06/03/1970 13:15      8.843     
NodeJ1i_INFLOW   06/03/1970 13:20      10.246    
NodeJ1i_INFLOW   06/03/1970 13:25      11.975    
NodeJ1i_INFLOW   06/03/1970 13:30      14.068    
NodeJ1i_INFLOW   06/03/1970 13:35      16.288    
NodeJ1i_INFLOW   06/03/1970 13:40      18.382    
NodeJ1i_INFLOW   06/03/1970 13:45      20.292    
NodeJ1i_INFLOW   06/03/1970 13:50      22.076    
NodeJ1i_INFLOW   06/03/1970 13:55      23.756    
NodeJ1i_INFLOW   06/03/1970 14:00      25.254    
NodeJ1i_INFLOW   06/03/1970 14:05      26.659    
NodeJ1i_INFLOW   06/03/1970 14:10      27.705    
NodeJ1i_INFLOW   06/03/1970 14:15      28.411    
NodeJ1i_INFLOW   06/03/1970 14:20      28.941    
NodeJ1i_INFLOW   06/03/1970 14:25      29.204    
NodeJ1i_INFLOW   06/03/1970 14:30      29.185    
NodeJ1i_INFLOW   06/03/1970 14:35      29.276    
NodeJ1i_INFLOW   06/03/1970 14:40      29.319    
NodeJ1i_INFLOW   06/03/1970 14:45      29.118    
NodeJ1i_INFLOW   06/03/1970 14:50      28.992    
NodeJ1i_INFLOW   06/03/1970 14:55      28.905    
NodeJ1i_INFLOW   06/03/1970 15:00      28.852    
NodeJ1i_INFLOW   06/03/1970 15:05      28.849    
NodeJ1i_INFLOW   06/03/1970 15:10      28.848    
NodeJ1i_INFLOW   06/03/1970 15:15      28.841    
NodeJ1i_INFLOW   06/03/1970 15:20      28.814    
NodeJ1i_INFLOW   06/03/1970 15:25      28.806    
NodeJ1i_INFLOW   06/03/1970 15:30      28.762    
NodeJ1i_INFLOW   06/03/1970 15:35      28.718    
NodeJ1i_INFLOW   06/03/1970 15:40      28.655    
NodeJ1i_INFLOW   06/03/1970 15:45      28.591    
NodeJ1i_INFLOW   06/03/1970 15:50      28.515    
NodeJ1i_INFLOW   06/03/1970 15:55      28.406    
NodeJ1i_INFLOW   06/03/1970 16:00      28.293    
NodeJ1i_INFLOW   06/03/1970 16:05      28.187    
NodeJ1i_INFLOW   06/03/1970 16:10      28.084    
NodeJ1i_INFLOW   06/03/1970 16:15      28.001    
NodeJ1i_INFLOW   06/03/1970 16:20      27.940    
NodeJ1i_INFLOW   06/03/1970 16:25      27.864    
NodeJ1i_INFLOW   06/03/1970 16:30      27.744    
NodeJ1i_INFLOW   06/03/1970 16:35      27.627    
NodeJ1i_INFLOW   06/03/1970 16:40      27.521    
NodeJ1i_INFLOW   06/03/1970 16:45      27.413    
NodeJ1i_INFLOW   06/03/1970 16:50      27.281    
NodeJ1i_INFLOW   06/03/1970 16:55      27.197    
NodeJ1i_INFLOW   06/03/1970 17:00      26.998    
NodeJ1i_INFLOW   06/03/1970 17:05      26.777    
NodeJ1i_INFLOW   06/03/1970 17:10      26.548    
NodeJ1i_INFLOW   06/03/1970 17:15      26.291    
NodeJ1i_INFLOW   06/03/1970 17:20      26.050    
NodeJ1i_INFLOW   06/03/1970 17:25      25.815    
NodeJ1i_INFLOW   06/03/1970 17:30      25.561    
NodeJ1i_INFLOW   06/03/1970 17:35      25.275    
NodeJ1i_INFLOW   06/03/1970 17:40      24.973    
NodeJ1i_INFLOW   06/03/1970 17:45      24.690    
NodeJ1i_INFLOW   06/03/1970 17:50      24.397    
NodeJ1i_INFLOW   06/03/1970 17:55      24.075    
NodeJ1i_INFLOW   06/03/1970 18:00      23.757    
NodeJ1i_INFLOW   06/03/1970 18:05      23.453    
NodeJ1i_INFLOW   06/03/1970 18:10      23.149    
NodeJ1i_INFLOW   06/03/1970 18:15      22.693    
NodeJ1i_INFLOW   06/03/1970 18:20      22.238    
NodeJ1i_INFLOW   06/03/1970 18:25      21.913    
NodeJ1i_INFLOW   06/03/1970 18:30      21.557    
NodeJ1i_INFLOW   06/03/1970 18:35      21.186    
NodeJ1i_INFLOW   06/03/1970 18:40      20.815    
NodeJ1i_INFLOW   06/03/1970 18:45      20.380    
NodeJ1i_INFLOW   06/03/1970 18:50      19.916    
NodeJ1i_INFLOW   06/03/1970 18:55      19.552    
NodeJ1i_INFLOW   06/03/1970 19:00      19.116    
NodeJ1i_INFLOW   06/03/1970 19:05      18.708    
NodeJ1i_INFLOW   06/03/1970 19:10      18.345    
NodeJ1i_INFLOW   06/03/1970 19:15      18.000    
NodeJ1i_INFLOW   06/03/1970 19:20      17.664    
NodeJ1i_INFLOW   06/03/1970 19:25      17.361    
NodeJ1i_INFLOW   06/03/1970 19:30      17.077    