[TITLE]
;;Project Title/Notes
Example

[OPTIONS]
;;Option             Value
FLOW_UNITS           CFS
INFILTRATION         GREEN_AMPT
FLOW_ROUTING         DYNWAVE
LINK_OFFSETS         ELEVATION
MIN_SLOPE            0
ALLOW_PONDING        YES
SKIP_STEADY_STATE    YES

START_DATE           06/01/2009
START_TIME           00:00:00
REPORT_START_DATE    06/01/2009
REPORT_START_TIME    00:00:00
END_DATE             08/01/2009
END_TIME             00:00:00
SWEEP_START          01/01
SWEEP_END            12/31
DRY_DAYS             0
REPORT_STEP          00:01:00
WET_STEP             00:00:30
DRY_STEP             00:05:00
ROUTING_STEP         0:00:10 

INERTIAL_DAMPING     PARTIAL
NORMAL_FLOW_LIMITED  BOTH
FORCE_MAIN_EQUATION  H-W
VARIABLE_STEP        0.00
LENGTHENING_STEP     0
MIN_SURFAREA         12.566
MAX_TRIALS           18
HEAD_TOLERANCE       0.001
SYS_FLOW_TOL         5
LAT_FLOW_TOL         5

[EVAPORATION]
;;Evap Data      Parameters
;;-------------- ----------------
CONSTANT         0.0
DRY_ONLY         NO

[RAINGAGES]
;;Gage           Format    Interval SCF      Source    
;;-------------- --------- ------ ------ ----------
RG4              VOLUME    1:00     1.0      TIMESERIES ExampleYear     

[SUBCATCHMENTS]
;;Subcatchment   Rain Gage        Outlet           Area     %Imperv  Width    %Slope   CurbLen  Snow Pack       
;;-------------- ---------------- ---------------- -------- -------- -------- -------- -------- ----------------
17               RG4              Basin1           40.38    14.7     1000     0.55     0                        
6                RG4              1                34.219   18.6     1630     1.12     0                        

[SUBAREAS]
;;Subcatchment   N-Imperv   N-Perv     S-Imperv   S-Perv     PctZero    RouteTo    PctRouted 
;;-------------- ---------- ---------- ---------- ---------- ---------- ---------- ----------
17               0.02       0.27       0.025      0.186      25         OUTLET    
6                0.02       0.27       0.025      0.186      25         OUTLET    

[INFILTRATION]
;;Subcatchment   Suction    HydCon     IMDmax    
;;-------------- ---------- ---------- ----------
17               3          0.5        4         
6                3          0.5        4         

[JUNCTIONS]
;;Junction       Invert     MaxDepth   InitDepth  SurDepth   Aponded   
;;-------------- ---------- ---------- ---------- ---------- ----------
;78" ID
1                836.5      12.7       0          0          0         
2                834.02     11.23      0          0          0         
22               829.27     16.89      0          0          0         
28               834.02     11.23      0          0          0         
5                835.57     8.53       0          0          0         

[OUTFALLS]
;;Outfall        Invert     Type       Stage Data       Gated   
;;-------------- ---------- ---------- ---------------- --------
21               829.27     FREE                        NO

[STORAGE]
;;Storage Node   Invert   MaxDepth   InitDepth  Shape      Curve Name/Params                     Fevap    Seepage
;;-------------- -------- ---------- ----------- ---------- ---------------------------- -------- -------- --------------------------------
Basin1           833.5    11.5       3.38       TABULAR    Pond                         13591.4  0       
InfiltrationBasin 827      20         0.7        TABULAR    InfBasin                     0        0        2.4      1.18     0.332   

[CONDUITS]
;;Conduit        From Node        To Node          Length     Roughness  InOffset   OutOffset  InitFlow   MaxFlow   
;;-------------- ---------------- ---------------- ---------- ---------- ---------- ---------- ---------- ----------
11               Basin1           22               114        0.01       833.92     833.82     0          0         
12               5                Basin1           422        0.01       835.57     834.96     0          0         
2                Basin1           2                50         0.01       834.66     834.02     0          0         
22               28               InfiltrationBasin 52         0.01       834.02     827.7      0          0         
4                1                InfiltrationBasin 1140       0.012      836.5      833.55     0          0         

[ORIFICES]
;;Orifice        From Node        To Node          Type         CrestHt    Qcoeff     Gated    CloseTime 
;;-------------- ---------------- ---------------- ------------ ---------- ---------- -------- ----------
21               2                28               SIDE         834.02     0.65       NO       0         

[WEIRS]
;;Weir           From Node        To Node          Type         CrestHt    Qcoeff     Gated    EndCon   EndCoeff   Surcharge 
;;-------------- ---------------- ---------------- ------------ ---------- ---------- -------- -------- ---------- ----------
Weir1            22               21               TRANSVERSE   834.5      3.33       NO       0        0          YES       

[XSECTIONS]
;;Link           Shape        Geom1            Geom2      Geom3      Geom4      Barrels   
;;-------------- ------------ ---------------- ---------- ---------- ---------- ----------
11               CIRCULAR     3                0          0          0          1                    
12               CIRCULAR     2.5              0          0          0          1                    
2                CIRCULAR     1                0          0          0          1                    
22               CIRCULAR     1                0          0          0          1                    
4                CIRCULAR     4                0          0          0          1                    
21               CIRCULAR     1                0          0          0
Weir1            RECT_OPEN    4.92             3          0          0         

[CONTROLS]
;;Control Rules
;;Control Rules
;;Control Rules
;;Control Rules
;;Control Rules
;;Control Rules

;; Here we control the operation of a weir that drains a stormwater pond to the sewer system
RULE Weir
IF NODE Basin1 DEPTH > 2
AND NODE Basin1 INFLOW [Enter] --- ; This is only the contribution from the subcatchment (lateral) inflow
AND LINK 12 FLOW [Enter] --- ; this is the contribution from the upstream conduit
AND STACK OP [+] --- ; Add the two cards on top of the stack (to get all of the inflow) and pop the stack to the sum
AND LINK 2 FLOW [Enter] --- ; this is the contribution from the upstream conduit // added to stack (now two cards in stack)
AND STACK OP [-] --- ; subtract the outflow (link 2, card at top of stack) from the inflow (which is the 2nd card below the top of the stack)
AND STACK OP [SQRT] --- ; take the natual logarithm of the result just for show
AND STACK OP [Enter] 0.325 ; this is the maximum desired fraction we want the weir to be open
AND STACK OP [X>Y] --- ; we are not opening it as much as 0.325
THEN WEIR Weir1 setting = STACK RESULT ; set the position of the weir to that value
ELSE WEIR Weir1 setting = 0.325 ; set the maximum allowable position

;-----------------------------------------------
; Here we control the operation of a pinch valve (orifice) that connects a storwmater pond to an infiltration basin

; Don't drain to infiltration basin if conditions aren't suitable
RULE FlowToInInfiltrationBasinasin_Close
IF NODE InfiltrationBasin DEPTH > 10 ; Basin is full
OR NODE Basin1 DEPTH <= 4.9 ; Wet pond is too low
THEN ORIFICE 21 setting = 0 ; shut the valve completely

; Drain into the basin at a rate that won't overfill it
RULE FlowToInInfiltrationBasinasin_Open
IF NODE InfiltrationBasin DEPTH < 9.50 ; There is enough freeboard for the inf. basin to take on water
AND NODE Basin1 DEPTH > 3.28 ; there is enough depth in the pond to drain
AND NODE Basin1 HEAD [Enter] --- ; we are pushing the current level in the pond onto the stack
AND NODE InfiltrationBasin HEAD [Enter] --- ; we are pushing the current level in the basin onto the stack
AND STACK OP [-] --- ; we are subtracting the basin level from the pond level to get the head difference
AND STACK OP [Enter] -0.5 ; we are putting a numer on the stack
AND STACK OP [y^x] --- we are taking our head differential and raising it to the -0.5 that we just put on the stack
AND STACK OP [Enter] 117.684 ; adding to stack
AND STACK OP [*] --- ; we are multiplying the result of our exponential calculation by 17.684
AND STACK OP [Enter] 100 ; adding to stack
AND STACK OP [/] --- ; dividing our result by 100 to get value from 0 to 1
THEN ORIFICE 21 SETTING = STACK RESULT  ; orifice operates between 0 and 1, hence the need for that last operation


[INFLOWS]
;;Node           Inflow           Time Series      Type     Funits   Fscale   Baseline Pattern
;;-------------- ---------------- ---------------- -------- -------- -------- -------- --------
5                FLOW             5_INFLOW         FLOW     1.0      5        0.000   

[CURVES]
;;Curve          Type       X-Value    Y-Value   
;;-------------- ---------- ---------- ----------
Weir2drawdown    Control    5.42       0         
Weir2drawdown               5.52       0.1       
Weir2drawdown               5.62       .2        
Weir2drawdown               5.72       .4        
Weir2drawdown               6          .8        
Weir2drawdown               8          1         
;
Weir3drawdown    Control    4.54       .1        
Weir3drawdown               4.7        .2        
Weir3drawdown               4.9        .35       
Weir3drawdown               5.3        .45       
Weir3drawdown               5.5        .6        
Weir3drawdown               7          .8        
Weir3drawdown               9          .9        
Weir3drawdown               12         1         
;
Pond             Storage    0          30944     
Pond                        1.5        152203    
Pond                        3.38       155968    
Pond                        5.38       191373    
;
InfBasin         Storage    0          14184     
InfBasin                    4.8        26000     

[TIMESERIES]
;;Time Series    Date       Time       Value     
;;-------------- ---------- ---------- ----------
;Balanced Event for NOAA14 12-hour, 1-Year Event
5_INFLOW         06/01/2009 00:05      13.002    
5_INFLOW         06/01/2009 00:10      12.779    
5_INFLOW         06/01/2009 00:15      12.807    
5_INFLOW         06/01/2009 00:20      12.714    
5_INFLOW         06/01/2009 00:25      12.684    
5_INFLOW         06/01/2009 00:30      12.774    
5_INFLOW         06/01/2009 00:35      12.875    
5_INFLOW         06/01/2009 00:40      12.744    
5_INFLOW         06/01/2009 00:45      12.829    
5_INFLOW         06/01/2009 00:50      12.812    
5_INFLOW         06/01/2009 00:55      12.792    
5_INFLOW         06/01/2009 01:00      12.768    
5_INFLOW         06/01/2009 01:05      12.747    
5_INFLOW         06/01/2009 01:10      12.730    
5_INFLOW         06/01/2009 01:15      12.755    
5_INFLOW         06/01/2009 01:20      12.742    
5_INFLOW         06/01/2009 01:25      12.721    
5_INFLOW         06/01/2009 01:30      12.700    
5_INFLOW         06/01/2009 01:35      12.679    
5_INFLOW         06/01/2009 01:40      12.658    
5_INFLOW         06/01/2009 01:45      12.636    
5_INFLOW         06/01/2009 01:50      12.616    
5_INFLOW         06/01/2009 01:55      12.595    
5_INFLOW         06/01/2009 02:00      12.573    
5_INFLOW         06/01/2009 02:05      12.548    
5_INFLOW         06/01/2009 02:10      12.520    
5_INFLOW         06/01/2009 02:15      12.382    
5_INFLOW         06/01/2009 02:20      12.490    
5_INFLOW         06/01/2009 02:25      12.468    
5_INFLOW         06/01/2009 02:30      12.446    
5_INFLOW         06/01/2009 02:35      12.427    
5_INFLOW         06/01/2009 02:40      12.406    
5_INFLOW         06/01/2009 02:45      12.385    
5_INFLOW         06/01/2009 02:50      12.364    
5_INFLOW         06/01/2009 02:55      12.342    
5_INFLOW         06/01/2009 03:00      12.321    
5_INFLOW         06/01/2009 03:05      12.301    
5_INFLOW         06/01/2009 03:10      12.280    
5_INFLOW         06/01/2009 03:15      12.260    
5_INFLOW         06/01/2009 03:20      12.240    
5_INFLOW         06/01/2009 03:25      12.218    
5_INFLOW         06/01/2009 03:30      12.199    
5_INFLOW         06/01/2009 03:35      12.179    
5_INFLOW         06/01/2009 03:40      12.158    
5_INFLOW         06/01/2009 03:45      12.139    
5_INFLOW         06/01/2009 03:50      12.117    
5_INFLOW         06/01/2009 03:55      12.099    
5_INFLOW         06/01/2009 04:00      12.079    
5_INFLOW         06/01/2009 04:05      12.062    
5_INFLOW         06/01/2009 04:10      12.041    
5_INFLOW         06/01/2009 04:15      12.021    
5_INFLOW         06/01/2009 04:20      12.002    
5_INFLOW         06/01/2009 04:25      11.982    
5_INFLOW         06/01/2009 04:30      11.962    
5_INFLOW         06/01/2009 04:35      11.942    
5_INFLOW         06/01/2009 04:40      11.924    
5_INFLOW         06/01/2009 04:45      11.903    
5_INFLOW         06/01/2009 04:50      11.884    
5_INFLOW         06/01/2009 04:55      11.864    
5_INFLOW         06/01/2009 05:00      11.846    
5_INFLOW         06/01/2009 05:05      11.825    
5_INFLOW         06/01/2009 05:10      11.806    
5_INFLOW         06/01/2009 05:15      11.787    
5_INFLOW         06/01/2009 05:20      11.768    
5_INFLOW         06/01/2009 05:25      11.753    
5_INFLOW         06/01/2009 05:30      11.748    
5_INFLOW         06/01/2009 05:35      11.739    
5_INFLOW         06/01/2009 05:40      11.728    
5_INFLOW         06/01/2009 05:45      11.717    
5_INFLOW         06/01/2009 05:50      11.708    
5_INFLOW         06/01/2009 05:55      11.697    
5_INFLOW         06/01/2009 06:00      11.688    
5_INFLOW         06/01/2009 06:05      11.678    
5_INFLOW         06/01/2009 06:10      11.668    
5_INFLOW         06/01/2009 06:15      11.659    
5_INFLOW         06/01/2009 06:20      11.647    
5_INFLOW         06/01/2009 06:25      11.637    
5_INFLOW         06/01/2009 06:30      11.627    
5_INFLOW         06/01/2009 06:35      11.617    
5_INFLOW         06/01/2009 06:40      11.607    
5_INFLOW         06/01/2009 06:45      11.597    
5_INFLOW         06/01/2009 06:50      11.587    
5_INFLOW         06/01/2009 06:55      11.576    
5_INFLOW         06/01/2009 07:00      11.566    
5_INFLOW         06/01/2009 07:05      11.555    
5_INFLOW         06/01/2009 07:10      11.544    
5_INFLOW         06/01/2009 07:15      11.533    
5_INFLOW         06/01/2009 07:20      11.523    
5_INFLOW         06/01/2009 07:25      11.512    
5_INFLOW         06/01/2009 07:30      11.503    
5_INFLOW         06/01/2009 07:35      11.493    
5_INFLOW         06/01/2009 07:40      11.483    
5_INFLOW         06/01/2009 07:45      11.471    
5_INFLOW         06/01/2009 07:50      11.461    
5_INFLOW         06/01/2009 07:55      11.450    
5_INFLOW         06/01/2009 08:00      11.441    
5_INFLOW         06/01/2009 08:05      11.429    
5_INFLOW         06/01/2009 08:10      11.419    
5_INFLOW         06/01/2009 08:15      11.408    
5_INFLOW         06/01/2009 08:20      11.398    
5_INFLOW         06/01/2009 08:25      11.385    
5_INFLOW         06/01/2009 08:30      11.368    
5_INFLOW         06/01/2009 08:35      11.354    
5_INFLOW         06/01/2009 08:40      11.339    
5_INFLOW         06/01/2009 08:45      11.321    
5_INFLOW         06/01/2009 08:50      11.306    
5_INFLOW         06/01/2009 08:55      11.287    
5_INFLOW         06/01/2009 09:00      11.265    
5_INFLOW         06/01/2009 09:05      11.245    
5_INFLOW         06/01/2009 09:10      11.224    
5_INFLOW         06/01/2009 09:15      11.202    
5_INFLOW         06/01/2009 09:20      11.181    
5_INFLOW         06/01/2009 09:25      11.161    
5_INFLOW         06/01/2009 09:30      11.140    
5_INFLOW         06/01/2009 09:35      11.118    
5_INFLOW         06/01/2009 09:40      11.098    
5_INFLOW         06/01/2009 09:45      11.076    
5_INFLOW         06/01/2009 09:50      11.056    
5_INFLOW         06/01/2009 09:55      11.032    
5_INFLOW         06/01/2009 10:00      11.009    
5_INFLOW         06/01/2009 10:05      11.022    
5_INFLOW         06/01/2009 10:10      11.034    
5_INFLOW         06/01/2009 10:15      11.049    
5_INFLOW         06/01/2009 10:20      11.069    
5_INFLOW         06/01/2009 10:25      11.084    
5_INFLOW         06/01/2009 10:30      11.086    
5_INFLOW         06/01/2009 10:35      11.087    
5_INFLOW         06/01/2009 10:40      11.087    
5_INFLOW         06/01/2009 10:45      11.087    
5_INFLOW         06/01/2009 10:50      11.089    
5_INFLOW         06/01/2009 10:55      11.088    
5_INFLOW         06/01/2009 11:00      11.083    
5_INFLOW         06/01/2009 11:05      11.078    
5_INFLOW         06/01/2009 11:10      11.067    
5_INFLOW         06/01/2009 11:15      11.050    
5_INFLOW         06/01/2009 11:20      11.031    
5_INFLOW         06/01/2009 11:25      11.010    
5_INFLOW         06/01/2009 11:30      10.983    
5_INFLOW         06/01/2009 11:35      10.949    
5_INFLOW         06/01/2009 11:40      10.911    
5_INFLOW         06/01/2009 11:45      10.869    
5_INFLOW         06/01/2009 11:50      10.823    
5_INFLOW         06/01/2009 11:55      10.772    
5_INFLOW         06/01/2009 12:00      10.714    
5_INFLOW         06/01/2009 12:05      10.632    
5_INFLOW         06/01/2009 12:10      10.532    
5_INFLOW         06/01/2009 12:15      10.419    
5_INFLOW         06/01/2009 12:20      10.298    
5_INFLOW         06/01/2009 12:25      10.168    
5_INFLOW         06/01/2009 12:30      10.033    
5_INFLOW         06/01/2009 12:35      9.893     
5_INFLOW         06/01/2009 12:40      9.751     
5_INFLOW         06/01/2009 12:45      9.605     
5_INFLOW         06/01/2009 12:50      9.459     
5_INFLOW         06/01/2009 12:55      9.311     
5_INFLOW         06/01/2009 13:00      9.164     
5_INFLOW         06/01/2009 13:05      9.018     
5_INFLOW         06/01/2009 13:10      8.872     
5_INFLOW         06/01/2009 13:15      8.727     
5_INFLOW         06/01/2009 13:20      8.583     
5_INFLOW         06/01/2009 13:25      8.448     
5_INFLOW         06/01/2009 13:30      8.334     
5_INFLOW         06/01/2009 13:35      8.221     
5_INFLOW         06/01/2009 13:40      8.106     
5_INFLOW         06/01/2009 13:45      7.992     
5_INFLOW         06/01/2009 13:50      7.878     
5_INFLOW         06/01/2009 13:55      7.763     
5_INFLOW         06/01/2009 14:00      7.650     
5_INFLOW         06/01/2009 14:05      7.538     
5_INFLOW         06/01/2009 14:10      7.426     
5_INFLOW         06/01/2009 14:15      7.315     
5_INFLOW         06/01/2009 14:20      7.205     
5_INFLOW         06/01/2009 14:25      7.095     
5_INFLOW         06/01/2009 14:30      6.986     
5_INFLOW         06/01/2009 14:35      6.877     
5_INFLOW         06/01/2009 14:40      6.767     
5_INFLOW         06/01/2009 14:45      6.658     
5_INFLOW         06/01/2009 14:50      6.551     
5_INFLOW         06/01/2009 14:55      6.444     
5_INFLOW         06/01/2009 15:00      6.339     
5_INFLOW         06/01/2009 15:05      6.234     
5_INFLOW         06/01/2009 15:10      6.131     
5_INFLOW         06/01/2009 15:15      6.029     
5_INFLOW         06/01/2009 15:20      5.928     
5_INFLOW         06/01/2009 15:25      5.829     
5_INFLOW         06/01/2009 15:30      5.731     
5_INFLOW         06/01/2009 15:35      5.634     
5_INFLOW         06/01/2009 15:40      5.538     
5_INFLOW         06/01/2009 15:45      5.444     
5_INFLOW         06/01/2009 15:50      5.351     
5_INFLOW         06/01/2009 15:55      5.259     
5_INFLOW         06/01/2009 16:00      5.171     
5_INFLOW         06/01/2009 16:05      5.082     
5_INFLOW         06/01/2009 16:10      4.992     
5_INFLOW         06/01/2009 16:15      4.903     
5_INFLOW         06/01/2009 16:20      4.822     
5_INFLOW         06/01/2009 16:25      4.736     
5_INFLOW         06/01/2009 16:30      4.654     
5_INFLOW         06/01/2009 16:35      4.571     
5_INFLOW         06/01/2009 16:40      4.492     
5_INFLOW         06/01/2009 16:45      4.418     
5_INFLOW         06/01/2009 16:50      4.333     
5_INFLOW         06/01/2009 16:55      4.256     
5_INFLOW         06/01/2009 17:00      4.182     
5_INFLOW         06/01/2009 17:05      4.109     
5_INFLOW         06/01/2009 17:10      4.043     
5_INFLOW         06/01/2009 17:15      3.967     
5_INFLOW         06/01/2009 17:20      3.894     
5_INFLOW         06/01/2009 17:25      3.828     
5_INFLOW         06/01/2009 17:30      3.767     
5_INFLOW         06/01/2009 17:35      3.698     
5_INFLOW         06/01/2009 17:40      3.639     
5_INFLOW         06/01/2009 17:45      3.575     
5_INFLOW         06/01/2009 17:50      3.514     
5_INFLOW         06/01/2009 17:55      3.449     
5_INFLOW         06/01/2009 18:00      3.390     
5_INFLOW         06/01/2009 18:05      3.326     
5_INFLOW         06/01/2009 18:10      3.270     
5_INFLOW         06/01/2009 18:15      3.212     
5_INFLOW         06/01/2009 18:20      3.161     
5_INFLOW         06/01/2009 18:25      3.105     
5_INFLOW         06/01/2009 18:30      3.054     
5_INFLOW         06/01/2009 18:35      3.000     
5_INFLOW         06/01/2009 18:40      2.950     
5_INFLOW         06/01/2009 18:45      2.900     
5_INFLOW         06/01/2009 18:50      2.845     
5_INFLOW         06/01/2009 18:55      2.803     
5_INFLOW         06/01/2009 19:00      2.755     
5_INFLOW         06/01/2009 19:05      2.708     
5_INFLOW         06/01/2009 19:10      2.665     
5_INFLOW         06/01/2009 19:15      2.616     
5_INFLOW         06/01/2009 19:20      2.573     
5_INFLOW         06/01/2009 19:25      2.526     
5_INFLOW         06/01/2009 19:30      2.487     
5_INFLOW         06/01/2009 19:35      2.445     
5_INFLOW         06/01/2009 19:40      2.402     
5_INFLOW         06/01/2009 19:45      2.367     
5_INFLOW         06/01/2009 19:50      2.326     
5_INFLOW         06/01/2009 19:55      2.293     
5_INFLOW         06/01/2009 20:00      2.254     
5_INFLOW         06/01/2009 20:05      2.217     
5_INFLOW         06/01/2009 20:10      2.182     
5_INFLOW         06/01/2009 20:15      2.141     
5_INFLOW         06/01/2009 20:20      2.114     
5_INFLOW         06/01/2009 20:25      2.072     
5_INFLOW         06/01/2009 20:30      2.041     
5_INFLOW         06/01/2009 20:35      2.010     
5_INFLOW         06/01/2009 20:40      1.975     
5_INFLOW         06/01/2009 20:45      1.947     
5_INFLOW         06/01/2009 20:50      1.923     
5_INFLOW         06/01/2009 20:55      1.883     
5_INFLOW         06/01/2009 21:00      1.855     
5_INFLOW         06/01/2009 21:05      1.830     
5_INFLOW         06/01/2009 21:10      1.801     
5_INFLOW         06/01/2009 21:15      1.768     
5_INFLOW         06/01/2009 21:20      1.747     
5_INFLOW         06/01/2009 21:25      1.720     
5_INFLOW         06/01/2009 21:30      1.694     
5_INFLOW         06/01/2009 21:35      1.666     
5_INFLOW         06/01/2009 21:40      1.637     
5_INFLOW         06/01/2009 21:45      1.616     
5_INFLOW         06/01/2009 21:50      1.583     
5_INFLOW         06/01/2009 21:55      1.571     
5_INFLOW         06/01/2009 22:00      1.545     
5_INFLOW         06/01/2009 22:05      1.522     
5_INFLOW         06/01/2009 22:10      1.503     
5_INFLOW         06/01/2009 22:15      1.476     
5_INFLOW         06/01/2009 22:20      1.451     
5_INFLOW         06/01/2009 22:25      1.427     
5_INFLOW         06/01/2009 22:30      1.420     
5_INFLOW         06/01/2009 22:35      1.391     
5_INFLOW         06/01/2009 22:40      1.366     
5_INFLOW         06/01/2009 22:45      1.350     
5_INFLOW         06/01/2009 22:50      1.334     
5_INFLOW         06/01/2009 22:55      1.318     
5_INFLOW         06/01/2009 23:00      1.306     
5_INFLOW         06/01/2009 23:05      1.289     
5_INFLOW         06/01/2009 23:10      1.263     
5_INFLOW         06/01/2009 23:15      1.247     
5_INFLOW         06/01/2009 23:20      1.231     
5_INFLOW         06/01/2009 23:25      1.222     
5_INFLOW         06/01/2009 23:30      1.194     
5_INFLOW         06/01/2009 23:35      1.179     
5_INFLOW         06/01/2009 23:40      1.169     
5_INFLOW         06/01/2009 23:45      1.150     
5_INFLOW         06/01/2009 23:50      1.138     
5_INFLOW         06/01/2009 23:55      1.123     
5_INFLOW         06/02/2009 00:00      1.108     
5_INFLOW         06/02/2009 00:05      1.093     
5_INFLOW         06/02/2009 00:10      1.078     
5_INFLOW         06/02/2009 00:15      1.064     
5_INFLOW         06/02/2009 00:20      1.051     
5_INFLOW         06/02/2009 00:25      1.041     
5_INFLOW         06/02/2009 00:30      1.026     
5_INFLOW         06/02/2009 00:35      1.014     
5_INFLOW         06/02/2009 00:40      0.998     
5_INFLOW         06/02/2009 00:45      0.985     
5_INFLOW         06/02/2009 00:50      0.978     
5_INFLOW         06/02/2009 00:55      0.965     
5_INFLOW         06/02/2009 01:00      0.951     
5_INFLOW         06/02/2009 01:05      0.939     
5_INFLOW         06/02/2009 01:10      0.926     
5_INFLOW         06/02/2009 01:15      0.919     
5_INFLOW         06/02/2009 01:20      0.905     
5_INFLOW         06/02/2009 01:25      0.891     
5_INFLOW         06/02/2009 01:30      0.884     
5_INFLOW         06/02/2009 01:35      0.871     
5_INFLOW         06/02/2009 01:40      0.862     
5_INFLOW         06/02/2009 01:45      0.855     
5_INFLOW         06/02/2009 01:50      0.837     
5_INFLOW         06/02/2009 01:55      0.835     
5_INFLOW         06/02/2009 02:00      0.820     
5_INFLOW         06/02/2009 02:05      0.814     
5_INFLOW         06/02/2009 02:10      0.806     
5_INFLOW         06/02/2009 02:15      0.788     
5_INFLOW         06/02/2009 02:20      0.777     
5_INFLOW         06/02/2009 02:25      0.774     
5_INFLOW         06/02/2009 02:30      0.763     
5_INFLOW         06/02/2009 02:35      0.751     
5_INFLOW         06/02/2009 02:40      0.748     
5_INFLOW         06/02/2009 02:45      0.737     
5_INFLOW         06/02/2009 02:50      0.726     
5_INFLOW         06/02/2009 02:55      0.723     
5_INFLOW         06/02/2009 03:00      0.717     
5_INFLOW         06/02/2009 03:05      0.709     
5_INFLOW         06/02/2009 03:10      0.702     
5_INFLOW         06/02/2009 03:15      0.693     
5_INFLOW         06/02/2009 03:20      0.685     
5_INFLOW         06/02/2009 03:25      0.685     
5_INFLOW         06/02/2009 03:30      0.678     
5_INFLOW         06/02/2009 03:35      0.667     
5_INFLOW         06/02/2009 03:40      0.665     
5_INFLOW         06/02/2009 03:45      0.655     
5_INFLOW         06/02/2009 03:50      0.648     
5_INFLOW         06/02/2009 03:55      0.654     
5_INFLOW         06/02/2009 04:00      0.638     
5_INFLOW         06/02/2009 04:05      0.624     
5_INFLOW         06/02/2009 04:10      0.631     
5_INFLOW         06/02/2009 04:15      0.618     
5_INFLOW         06/02/2009 04:20      0.641     
5_INFLOW         06/02/2009 04:25      0.645     
5_INFLOW         06/02/2009 04:30      0.637     
5_INFLOW         06/02/2009 04:35      0.636     
5_INFLOW         06/02/2009 04:40      0.634     
5_INFLOW         06/02/2009 04:45      0.631     
5_INFLOW         06/02/2009 04:50      0.624     
5_INFLOW         06/02/2009 04:55      0.617     
5_INFLOW         06/02/2009 05:00      0.611     
5_INFLOW         06/02/2009 05:05      0.606     
5_INFLOW         06/02/2009 05:10      0.601     
5_INFLOW         06/02/2009 05:15      0.597     
5_INFLOW         06/02/2009 05:20      0.592     
5_INFLOW         06/02/2009 05:25      0.585     
5_INFLOW         06/02/2009 05:30      0.576     
5_INFLOW         06/02/2009 05:35      0.567     
5_INFLOW         06/02/2009 05:40      0.563     
5_INFLOW         06/02/2009 05:45      0.563     
5_INFLOW         06/02/2009 05:50      0.563     
5_INFLOW         06/02/2009 05:55      0.543     
5_INFLOW         06/02/2009 06:00      0.523     
5_INFLOW         06/02/2009 06:05      0.532     
5_INFLOW         06/02/2009 06:10      0.487     
5_INFLOW         06/02/2009 06:15      0.590     
5_INFLOW         06/02/2009 06:20      0.005     
5_INFLOW         06/02/2009 06:25      0.477     
5_INFLOW         06/02/2009 06:30      0.036     
5_INFLOW         06/02/2009 06:35      0.432     
5_INFLOW         06/02/2009 06:40      0.210     
5_INFLOW         06/02/2009 06:45      0.525     
5_INFLOW         06/02/2009 06:50      0.555     
5_INFLOW         06/02/2009 06:55      0.658     
5_INFLOW         06/02/2009 07:00      0.178     
5_INFLOW         06/02/2009 07:05      0.491     
5_INFLOW         06/02/2009 07:10      0.470     
5_INFLOW         06/02/2009 07:15      0.461     
5_INFLOW         06/02/2009 07:20      0.412     
5_INFLOW         06/02/2009 07:25      0.399     
5_INFLOW         06/02/2009 07:30      0.402     
5_INFLOW         06/02/2009 07:35      0.471     
5_INFLOW         06/02/2009 07:40      0.487     
5_INFLOW         06/02/2009 07:45      0.454     
5_INFLOW         06/02/2009 07:50      0.000     
5_INFLOW         06/02/2009 07:55      0.508     
5_INFLOW         06/02/2009 08:00      0.145     
5_INFLOW         06/02/2009 08:05      0.095     
5_INFLOW         06/02/2009 08:10      0.158     
5_INFLOW         06/02/2009 08:15      0.274     
5_INFLOW         06/02/2009 08:20      0.456     
5_INFLOW         06/02/2009 08:25      0.022     
5_INFLOW         06/02/2009 08:30      0.000     
5_INFLOW         06/02/2009 08:35      0.560     
5_INFLOW         06/02/2009 08:40      0.479     
5_INFLOW         06/02/2009 08:45      0.175     
5_INFLOW         06/02/2009 08:50      0.000     
5_INFLOW         06/02/2009 08:55      0.581     